Version 4
SHEET 1 30200 10960
WIRE 5488 -2544 5376 -2544
WIRE 5600 -2544 5488 -2544
WIRE 5488 -2480 5488 -2544
WIRE 5376 -2464 5376 -2544
WIRE 5968 -2448 5968 -2496
WIRE 6064 -2448 6064 -2496
WIRE 6160 -2448 6160 -2496
WIRE 6256 -2448 6256 -2496
WIRE 6624 -2448 6624 -2480
WIRE 6752 -2448 6752 -2480
WIRE 6896 -2448 6896 -2480
WIRE 6368 -2432 6368 -2496
WIRE 6496 -2432 6496 -2496
WIRE 5488 -2368 5488 -2400
WIRE 5600 -2368 5488 -2368
WIRE 5376 -2352 5376 -2384
WIRE 5488 -2336 5488 -2368
WIRE 5968 -2320 5968 -2368
WIRE 6064 -2320 6064 -2368
WIRE 6160 -2320 6160 -2368
WIRE 6256 -2320 6256 -2368
WIRE 6368 -2320 6368 -2352
WIRE 6496 -2320 6496 -2352
WIRE 6624 -2320 6624 -2368
WIRE 6752 -2320 6752 -2368
WIRE 6896 -2320 6896 -2368
WIRE 5488 -2208 5488 -2256
WIRE 5584 -2208 5488 -2208
WIRE 5488 -2176 5488 -2208
WIRE 5488 -2064 5488 -2096
WIRE 5584 -2064 5488 -2064
WIRE 5488 -2000 5488 -2064
WIRE 5488 -1872 5488 -1920
WIRE 5584 -1872 5488 -1872
WIRE 5488 -1792 5488 -1872
WIRE 5488 -1664 5488 -1712
WIRE 4528 -592 4528 -608
WIRE 4480 -576 4432 -576
WIRE 4768 -576 4768 -592
WIRE 4720 -560 4672 -560
WIRE 6272 -560 6272 -576
WIRE 6224 -544 6176 -544
WIRE 6512 -544 6512 -560
WIRE 6464 -528 6416 -528
WIRE 4976 -496 4976 -592
WIRE 5136 -480 5024 -480
WIRE 5568 -480 5328 -480
WIRE 4528 -464 4528 -496
WIRE 6720 -464 6720 -560
WIRE 4480 -448 4432 -448
WIRE 4768 -448 4768 -480
WIRE 5104 -448 5104 -592
WIRE 5248 -448 5248 -592
WIRE 6880 -448 6768 -448
WIRE 7312 -448 7072 -448
WIRE 4720 -432 4672 -432
WIRE 6272 -432 6272 -464
WIRE 6224 -416 6176 -416
WIRE 6512 -416 6512 -448
WIRE 6848 -416 6848 -560
WIRE 6992 -416 6992 -560
WIRE 5456 -400 5456 -592
WIRE 6464 -400 6416 -400
WIRE 7200 -368 7200 -560
WIRE 4528 -320 4528 -368
WIRE 4768 -320 4768 -352
WIRE 4768 -320 4528 -320
WIRE 4880 -320 4768 -320
WIRE 4976 -320 4976 -400
WIRE 4976 -320 4880 -320
WIRE 5056 -320 5056 -432
WIRE 5056 -320 4976 -320
WIRE 5104 -320 5104 -352
WIRE 5136 -320 5136 -480
WIRE 5136 -320 5104 -320
WIRE 5200 -320 5200 -432
WIRE 5200 -320 5136 -320
WIRE 5248 -320 5248 -352
WIRE 5280 -320 5248 -320
WIRE 5328 -320 5328 -480
WIRE 5328 -320 5280 -320
WIRE 5408 -320 5328 -320
WIRE 5104 -304 5104 -320
WIRE 5248 -304 5248 -320
WIRE 4880 -288 4880 -320
WIRE 5328 -288 5328 -320
WIRE 5456 -288 5456 -304
WIRE 5504 -288 5456 -288
WIRE 5568 -288 5504 -288
WIRE 6272 -288 6272 -336
WIRE 6512 -288 6512 -320
WIRE 6512 -288 6272 -288
WIRE 6624 -288 6512 -288
WIRE 6720 -288 6720 -368
WIRE 6720 -288 6624 -288
WIRE 6800 -288 6800 -400
WIRE 6800 -288 6720 -288
WIRE 6848 -288 6848 -320
WIRE 6880 -288 6880 -448
WIRE 6880 -288 6848 -288
WIRE 6944 -288 6944 -400
WIRE 6944 -288 6880 -288
WIRE 6992 -288 6992 -320
WIRE 7024 -288 6992 -288
WIRE 7072 -288 7072 -448
WIRE 7072 -288 7024 -288
WIRE 7152 -288 7072 -288
WIRE 5456 -272 5456 -288
WIRE 5504 -272 5504 -288
WIRE 6848 -272 6848 -288
WIRE 6992 -272 6992 -288
WIRE 512 -256 480 -256
WIRE 624 -256 592 -256
WIRE 4768 -256 4768 -320
WIRE 6624 -256 6624 -288
WIRE 7072 -256 7072 -288
WIRE 7200 -256 7200 -272
WIRE 7248 -256 7200 -256
WIRE 7312 -256 7248 -256
WIRE 800 -240 784 -240
WIRE 896 -240 880 -240
WIRE 928 -240 912 -240
WIRE 1040 -240 1008 -240
WIRE 4976 -240 4976 -320
WIRE 7200 -240 7200 -256
WIRE 7248 -240 7248 -256
WIRE 1296 -224 1264 -224
WIRE 1408 -224 1376 -224
WIRE 5056 -224 5056 -320
WIRE 5200 -224 5200 -320
WIRE 6512 -224 6512 -288
WIRE 5408 -208 5392 -208
WIRE 6720 -208 6720 -288
WIRE 5280 -192 5280 -320
WIRE 5280 -192 5024 -192
WIRE 6800 -192 6800 -288
WIRE 6944 -192 6944 -288
WIRE 4720 -176 4672 -176
WIRE 5248 -176 5248 -208
WIRE 5392 -176 5392 -208
WIRE 7152 -176 7136 -176
WIRE 5024 -160 5024 -192
WIRE 7024 -160 7024 -288
WIRE 7024 -160 6768 -160
WIRE 368 -144 304 -144
WIRE 480 -144 480 -256
WIRE 480 -144 448 -144
WIRE 528 -144 480 -144
WIRE 6464 -144 6416 -144
WIRE 6992 -144 6992 -176
WIRE 7136 -144 7136 -176
WIRE 624 -128 624 -256
WIRE 624 -128 592 -128
WIRE 752 -128 624 -128
WIRE 896 -128 896 -240
WIRE 896 -128 832 -128
WIRE 912 -128 912 -240
WIRE 912 -128 896 -128
WIRE 944 -128 912 -128
WIRE 6768 -128 6768 -160
WIRE 528 -112 496 -112
WIRE 1040 -112 1040 -240
WIRE 1040 -112 1008 -112
WIRE 1152 -112 1040 -112
WIRE 1264 -112 1264 -224
WIRE 1264 -112 1232 -112
WIRE 1312 -112 1264 -112
WIRE 1792 -112 1792 -128
WIRE 496 -96 496 -112
WIRE 944 -96 912 -96
WIRE 1408 -96 1408 -224
WIRE 1408 -96 1376 -96
WIRE 1760 -96 1408 -96
WIRE 912 -80 912 -96
WIRE 1312 -80 1280 -80
WIRE 1856 -80 1824 -80
WIRE 1952 -80 1856 -80
WIRE 1280 -64 1280 -80
WIRE 1760 -64 1728 -64
WIRE 4768 -64 4768 -160
WIRE 4880 -64 4880 -224
WIRE 4976 -64 4976 -144
WIRE 5104 -64 5104 -208
WIRE 5248 -64 5248 -80
WIRE 5328 -64 5328 -224
WIRE 5456 -64 5456 -192
WIRE 5504 -64 5504 -208
WIRE 1728 -32 1728 -64
WIRE 1856 -32 1856 -80
WIRE 1856 -32 1728 -32
WIRE 6512 -32 6512 -128
WIRE 6624 -32 6624 -192
WIRE 6720 -32 6720 -112
WIRE 6848 -32 6848 -176
WIRE 6992 -32 6992 -48
WIRE 7072 -32 7072 -192
WIRE 7200 -32 7200 -160
WIRE 7248 -32 7248 -176
WIRE 1792 -16 1792 -48
WIRE 9216 0 9168 0
WIRE 496 16 480 16
WIRE 608 16 576 16
WIRE 656 16 640 16
WIRE 768 16 736 16
WIRE 1072 32 1040 32
WIRE 1184 32 1152 32
WIRE 160 96 160 80
WIRE 9216 96 9216 0
WIRE 9216 96 9168 96
WIRE 128 112 0 112
WIRE 224 128 192 128
WIRE 304 128 304 -144
WIRE 304 128 224 128
WIRE 480 128 304 128
WIRE 608 128 608 16
WIRE 608 128 560 128
WIRE 640 128 640 16
WIRE 640 128 608 128
WIRE 672 128 640 128
WIRE 128 144 96 144
WIRE 768 144 768 16
WIRE 768 144 736 144
WIRE 928 144 768 144
WIRE 1040 144 1040 32
WIRE 1040 144 1008 144
WIRE 1088 144 1040 144
WIRE 1792 144 1792 128
WIRE 6336 144 6336 128
WIRE 672 160 640 160
WIRE 1184 160 1184 32
WIRE 1184 160 1152 160
WIRE 1760 160 1184 160
WIRE 4544 160 4544 144
WIRE 6288 160 6240 160
WIRE 6560 160 6560 144
WIRE 96 176 96 144
WIRE 224 176 224 128
WIRE 224 176 96 176
WIRE 640 176 640 160
WIRE 1088 176 1056 176
WIRE 1856 176 1824 176
WIRE 1952 176 1856 176
WIRE 4496 176 4448 176
WIRE 4768 176 4768 160
WIRE 6512 176 6464 176
WIRE 160 192 160 160
WIRE 1056 192 1056 176
WIRE 1760 192 1728 192
WIRE 4720 192 4672 192
WIRE 9216 192 9216 96
WIRE 9216 192 9168 192
WIRE 1728 224 1728 192
WIRE 1856 224 1856 176
WIRE 1856 224 1728 224
WIRE 1792 240 1792 208
WIRE 6768 240 6768 144
WIRE 4976 256 4976 160
WIRE 6928 256 6816 256
WIRE 7360 256 7120 256
WIRE 5136 272 5024 272
WIRE 5568 272 5328 272
WIRE 6336 272 6336 240
WIRE 4544 288 4544 256
WIRE 6288 288 6240 288
WIRE 6560 288 6560 256
WIRE 6896 288 6896 144
WIRE 7040 288 7040 144
WIRE 9216 288 9216 192
WIRE 9216 288 9168 288
WIRE 0 304 0 112
WIRE 4496 304 4448 304
WIRE 4768 304 4768 272
WIRE 5104 304 5104 160
WIRE 5248 304 5248 160
WIRE 6512 304 6464 304
WIRE 4720 320 4672 320
WIRE 7248 336 7248 144
WIRE 5456 352 5456 160
WIRE 9216 384 9216 288
WIRE 9216 384 9168 384
WIRE 0 416 0 384
WIRE 6336 416 6336 368
WIRE 6560 416 6560 384
WIRE 6560 416 6336 416
WIRE 6672 416 6560 416
WIRE 6768 416 6768 336
WIRE 6768 416 6672 416
WIRE 6848 416 6848 304
WIRE 6848 416 6768 416
WIRE 6896 416 6896 384
WIRE 6928 416 6928 256
WIRE 6928 416 6896 416
WIRE 6992 416 6992 304
WIRE 6992 416 6928 416
WIRE 7040 416 7040 384
WIRE 7072 416 7040 416
WIRE 7120 416 7120 256
WIRE 7120 416 7072 416
WIRE 7200 416 7120 416
WIRE 4544 432 4544 384
WIRE 4768 432 4768 400
WIRE 4768 432 4544 432
WIRE 4880 432 4768 432
WIRE 4976 432 4976 352
WIRE 4976 432 4880 432
WIRE 5056 432 5056 320
WIRE 5056 432 4976 432
WIRE 5104 432 5104 400
WIRE 5136 432 5136 272
WIRE 5136 432 5104 432
WIRE 5200 432 5200 320
WIRE 5200 432 5136 432
WIRE 5248 432 5248 400
WIRE 5280 432 5248 432
WIRE 5328 432 5328 272
WIRE 5328 432 5280 432
WIRE 5408 432 5328 432
WIRE 6896 432 6896 416
WIRE 7040 432 7040 416
WIRE 5104 448 5104 432
WIRE 5248 448 5248 432
WIRE 6672 448 6672 416
WIRE 7120 448 7120 416
WIRE 7248 448 7248 432
WIRE 7296 448 7248 448
WIRE 7360 448 7296 448
WIRE 4880 464 4880 432
WIRE 5328 464 5328 432
WIRE 5456 464 5456 448
WIRE 5504 464 5456 464
WIRE 5568 464 5504 464
WIRE 7248 464 7248 448
WIRE 7296 464 7296 448
WIRE 5456 480 5456 464
WIRE 5504 480 5504 464
WIRE 6560 480 6560 416
WIRE 9216 480 9216 384
WIRE 9216 480 9168 480
WIRE 4768 496 4768 432
WIRE 6768 496 6768 416
WIRE 4976 512 4976 432
WIRE 6848 512 6848 416
WIRE 6992 512 6992 416
WIRE 5056 528 5056 432
WIRE 5200 528 5200 432
WIRE 7200 528 7184 528
WIRE 5408 544 5392 544
WIRE 7072 544 7072 416
WIRE 7072 544 6816 544
WIRE 5280 560 5280 432
WIRE 5280 560 5024 560
WIRE 6512 560 6464 560
WIRE 7040 560 7040 528
WIRE 7184 560 7184 528
WIRE 512 576 480 576
WIRE 624 576 592 576
WIRE 4720 576 4672 576
WIRE 5248 576 5248 544
WIRE 5392 576 5392 544
WIRE 6816 576 6816 544
WIRE 9216 576 9216 480
WIRE 9216 576 9168 576
WIRE 800 592 784 592
WIRE 896 592 880 592
WIRE 928 592 912 592
WIRE 1040 592 1008 592
WIRE 5024 592 5024 560
WIRE 1296 608 1264 608
WIRE 1408 608 1376 608
WIRE 6560 672 6560 576
WIRE 6672 672 6672 512
WIRE 6768 672 6768 592
WIRE 6896 672 6896 528
WIRE 7040 672 7040 656
WIRE 7120 672 7120 512
WIRE 7248 672 7248 544
WIRE 7296 672 7296 528
WIRE 9216 672 9216 576
WIRE 9216 672 9168 672
WIRE 368 688 304 688
WIRE 480 688 480 576
WIRE 480 688 448 688
WIRE 528 688 480 688
WIRE 4768 688 4768 592
WIRE 4880 688 4880 528
WIRE 4976 688 4976 608
WIRE 5104 688 5104 544
WIRE 5248 688 5248 672
WIRE 5328 688 5328 528
WIRE 5456 688 5456 560
WIRE 5504 688 5504 544
WIRE 624 704 624 576
WIRE 624 704 592 704
WIRE 752 704 624 704
WIRE 896 704 896 592
WIRE 896 704 832 704
WIRE 912 704 912 592
WIRE 912 704 896 704
WIRE 944 704 912 704
WIRE 528 720 496 720
WIRE 1040 720 1040 592
WIRE 1040 720 1008 720
WIRE 1152 720 1040 720
WIRE 1264 720 1264 608
WIRE 1264 720 1232 720
WIRE 1312 720 1264 720
WIRE 1792 720 1792 704
WIRE 496 736 496 720
WIRE 944 736 912 736
WIRE 1408 736 1408 608
WIRE 1408 736 1376 736
WIRE 1760 736 1408 736
WIRE 912 752 912 736
WIRE 1312 752 1280 752
WIRE 1856 752 1824 752
WIRE 1952 752 1856 752
WIRE 1280 768 1280 752
WIRE 1760 768 1728 768
WIRE 1728 800 1728 768
WIRE 1856 800 1856 752
WIRE 1856 800 1728 800
WIRE 1792 816 1792 784
WIRE 496 848 480 848
WIRE 608 848 576 848
WIRE 656 848 640 848
WIRE 768 848 736 848
WIRE 1072 864 1040 864
WIRE 1184 864 1152 864
WIRE 9360 864 9296 864
WIRE 9504 864 9440 864
WIRE 9664 896 9632 896
WIRE 9792 896 9744 896
WIRE 160 928 160 912
WIRE 12096 928 10048 928
WIRE 128 944 0 944
WIRE 6320 944 6320 928
WIRE 224 960 192 960
WIRE 304 960 304 688
WIRE 304 960 224 960
WIRE 480 960 304 960
WIRE 608 960 608 848
WIRE 608 960 560 960
WIRE 640 960 640 848
WIRE 640 960 608 960
WIRE 672 960 640 960
WIRE 4528 960 4528 944
WIRE 6272 960 6224 960
WIRE 6544 960 6544 944
WIRE 128 976 96 976
WIRE 768 976 768 848
WIRE 768 976 736 976
WIRE 928 976 768 976
WIRE 1040 976 1040 864
WIRE 1040 976 1008 976
WIRE 1088 976 1040 976
WIRE 1792 976 1792 960
WIRE 4480 976 4432 976
WIRE 4752 976 4752 960
WIRE 6496 976 6448 976
WIRE 9392 976 9392 960
WIRE 672 992 640 992
WIRE 1184 992 1184 864
WIRE 1184 992 1152 992
WIRE 1760 992 1184 992
WIRE 4704 992 4656 992
WIRE 9216 992 9216 672
WIRE 9296 992 9296 864
WIRE 9296 992 9216 992
WIRE 9360 992 9296 992
WIRE 96 1008 96 976
WIRE 224 1008 224 960
WIRE 224 1008 96 1008
WIRE 640 1008 640 992
WIRE 1088 1008 1056 1008
WIRE 1856 1008 1824 1008
WIRE 1952 1008 1856 1008
WIRE 9504 1008 9504 864
WIRE 9504 1008 9424 1008
WIRE 9536 1008 9504 1008
WIRE 9632 1008 9632 896
WIRE 9632 1008 9616 1008
WIRE 9680 1008 9632 1008
WIRE 9920 1008 9920 992
WIRE 160 1024 160 992
WIRE 1056 1024 1056 1008
WIRE 1760 1024 1728 1024
WIRE 9360 1024 9328 1024
WIRE 9792 1024 9792 896
WIRE 9792 1024 9744 1024
WIRE 9888 1024 9792 1024
WIRE 6752 1040 6752 944
WIRE 9680 1040 9632 1040
WIRE 9984 1040 9952 1040
WIRE 10048 1040 10048 928
WIRE 10048 1040 9984 1040
WIRE 10112 1040 10048 1040
WIRE 10224 1040 10192 1040
WIRE 10240 1040 10224 1040
WIRE 10352 1040 10304 1040
WIRE 1728 1056 1728 1024
WIRE 1856 1056 1856 1008
WIRE 1856 1056 1728 1056
WIRE 4960 1056 4960 960
WIRE 6912 1056 6800 1056
WIRE 7344 1056 7104 1056
WIRE 9328 1056 9328 1024
WIRE 9392 1056 9392 1040
WIRE 9632 1056 9632 1040
WIRE 9888 1056 9856 1056
WIRE 1792 1072 1792 1040
WIRE 5120 1072 5008 1072
WIRE 5552 1072 5312 1072
WIRE 6320 1072 6320 1040
WIRE 4528 1088 4528 1056
WIRE 6272 1088 6224 1088
WIRE 6544 1088 6544 1056
WIRE 6880 1088 6880 944
WIRE 7024 1088 7024 944
WIRE 9856 1088 9856 1056
WIRE 9984 1088 9984 1040
WIRE 9984 1088 9856 1088
WIRE 4480 1104 4432 1104
WIRE 4752 1104 4752 1072
WIRE 5088 1104 5088 960
WIRE 5232 1104 5232 960
WIRE 6496 1104 6448 1104
WIRE 9920 1104 9920 1072
WIRE 4704 1120 4656 1120
WIRE 0 1136 0 944
WIRE 7232 1136 7232 944
WIRE 5440 1152 5440 960
WIRE 10960 1200 10864 1200
WIRE 11072 1200 11040 1200
WIRE 6320 1216 6320 1168
WIRE 6544 1216 6544 1184
WIRE 6544 1216 6320 1216
WIRE 6656 1216 6544 1216
WIRE 6752 1216 6752 1136
WIRE 6752 1216 6656 1216
WIRE 6832 1216 6832 1104
WIRE 6832 1216 6752 1216
WIRE 6880 1216 6880 1184
WIRE 6912 1216 6912 1056
WIRE 6912 1216 6880 1216
WIRE 6976 1216 6976 1104
WIRE 6976 1216 6912 1216
WIRE 7024 1216 7024 1184
WIRE 7056 1216 7024 1216
WIRE 7104 1216 7104 1056
WIRE 7104 1216 7056 1216
WIRE 7184 1216 7104 1216
WIRE 4528 1232 4528 1184
WIRE 4752 1232 4752 1200
WIRE 4752 1232 4528 1232
WIRE 4864 1232 4752 1232
WIRE 4960 1232 4960 1152
WIRE 4960 1232 4864 1232
WIRE 5040 1232 5040 1120
WIRE 5040 1232 4960 1232
WIRE 5088 1232 5088 1200
WIRE 5120 1232 5120 1072
WIRE 5120 1232 5088 1232
WIRE 5184 1232 5184 1120
WIRE 5184 1232 5120 1232
WIRE 5232 1232 5232 1200
WIRE 5264 1232 5232 1232
WIRE 5312 1232 5312 1072
WIRE 5312 1232 5264 1232
WIRE 5392 1232 5312 1232
WIRE 6880 1232 6880 1216
WIRE 7024 1232 7024 1216
WIRE 0 1248 0 1216
WIRE 5088 1248 5088 1232
WIRE 5232 1248 5232 1232
WIRE 6656 1248 6656 1216
WIRE 7104 1248 7104 1216
WIRE 7232 1248 7232 1232
WIRE 7280 1248 7232 1248
WIRE 7344 1248 7280 1248
WIRE 10320 1248 10320 1232
WIRE 4864 1264 4864 1232
WIRE 5312 1264 5312 1232
WIRE 5440 1264 5440 1248
WIRE 5488 1264 5440 1264
WIRE 5552 1264 5488 1264
WIRE 7232 1264 7232 1248
WIRE 7280 1264 7280 1248
WIRE 10224 1264 10224 1040
WIRE 10288 1264 10224 1264
WIRE 5440 1280 5440 1264
WIRE 5488 1280 5488 1264
WIRE 6544 1280 6544 1216
WIRE 10384 1280 10352 1280
WIRE 10480 1280 10384 1280
WIRE 10864 1280 10864 1200
WIRE 10864 1280 10560 1280
WIRE 4752 1296 4752 1232
WIRE 6752 1296 6752 1216
WIRE 10288 1296 10256 1296
WIRE 4960 1312 4960 1232
WIRE 6832 1312 6832 1216
WIRE 6976 1312 6976 1216
WIRE 10928 1312 10928 1296
WIRE 5040 1328 5040 1232
WIRE 5184 1328 5184 1232
WIRE 7184 1328 7168 1328
WIRE 10256 1328 10256 1296
WIRE 10384 1328 10384 1280
WIRE 10384 1328 10256 1328
WIRE 10864 1328 10864 1280
WIRE 10896 1328 10864 1328
WIRE 11264 1328 11264 1312
WIRE 5392 1344 5376 1344
WIRE 7056 1344 7056 1216
WIRE 7056 1344 6800 1344
WIRE 10320 1344 10320 1312
WIRE 11072 1344 11072 1200
WIRE 11072 1344 10960 1344
WIRE 11232 1344 11072 1344
WIRE 5264 1360 5264 1232
WIRE 5264 1360 5008 1360
WIRE 6496 1360 6448 1360
WIRE 7024 1360 7024 1328
WIRE 7168 1360 7168 1328
WIRE 10608 1360 10528 1360
WIRE 10768 1360 10688 1360
WIRE 10896 1360 10768 1360
WIRE 11328 1360 11296 1360
WIRE 11424 1360 11328 1360
WIRE 4704 1376 4656 1376
WIRE 5232 1376 5232 1344
WIRE 5376 1376 5376 1344
WIRE 6800 1376 6800 1344
WIRE 11232 1376 11200 1376
WIRE 5008 1392 5008 1360
WIRE 10928 1392 10928 1376
WIRE 11200 1408 11200 1376
WIRE 11328 1408 11328 1360
WIRE 11328 1408 11200 1408
WIRE 11264 1424 11264 1392
WIRE 6544 1472 6544 1376
WIRE 6656 1472 6656 1312
WIRE 6752 1472 6752 1392
WIRE 6880 1472 6880 1328
WIRE 7024 1472 7024 1456
WIRE 7104 1472 7104 1312
WIRE 7232 1472 7232 1344
WIRE 7280 1472 7280 1328
WIRE 10768 1472 10768 1360
WIRE 11424 1472 11424 1440
WIRE 11568 1472 11424 1472
WIRE 4752 1488 4752 1392
WIRE 4864 1488 4864 1328
WIRE 4960 1488 4960 1408
WIRE 5088 1488 5088 1344
WIRE 5232 1488 5232 1472
WIRE 5312 1488 5312 1328
WIRE 5440 1488 5440 1360
WIRE 5488 1488 5488 1344
WIRE 11424 1504 11424 1472
WIRE 9232 1520 9184 1520
WIRE 10768 1584 10768 1552
WIRE 9232 1616 9232 1520
WIRE 9232 1616 9184 1616
WIRE 6368 1648 6368 1632
WIRE 4560 1664 4560 1648
WIRE 6320 1664 6272 1664
WIRE 6592 1664 6592 1648
WIRE 4512 1680 4464 1680
WIRE 4800 1680 4800 1664
WIRE 6544 1680 6496 1680
WIRE 4752 1696 4704 1696
WIRE 9232 1712 9232 1616
WIRE 9232 1712 9184 1712
WIRE 6800 1744 6800 1648
WIRE 5008 1760 5008 1664
WIRE 6960 1760 6848 1760
WIRE 7392 1760 7152 1760
WIRE 5168 1776 5056 1776
WIRE 5600 1776 5360 1776
WIRE 6368 1776 6368 1744
WIRE 4560 1792 4560 1760
WIRE 6320 1792 6272 1792
WIRE 6592 1792 6592 1760
WIRE 6928 1792 6928 1648
WIRE 7072 1792 7072 1648
WIRE 4512 1808 4464 1808
WIRE 4800 1808 4800 1776
WIRE 5136 1808 5136 1664
WIRE 5280 1808 5280 1664
WIRE 6544 1808 6496 1808
WIRE 9232 1808 9232 1712
WIRE 9232 1808 9184 1808
WIRE 4752 1824 4704 1824
WIRE 7280 1840 7280 1648
WIRE 5488 1856 5488 1664
WIRE 9232 1904 9232 1808
WIRE 9232 1904 9184 1904
WIRE 6368 1920 6368 1872
WIRE 6592 1920 6592 1888
WIRE 6592 1920 6368 1920
WIRE 6704 1920 6592 1920
WIRE 6800 1920 6800 1840
WIRE 6800 1920 6704 1920
WIRE 6880 1920 6880 1808
WIRE 6880 1920 6800 1920
WIRE 6928 1920 6928 1888
WIRE 6960 1920 6960 1760
WIRE 6960 1920 6928 1920
WIRE 7024 1920 7024 1808
WIRE 7024 1920 6960 1920
WIRE 7072 1920 7072 1888
WIRE 7104 1920 7072 1920
WIRE 7152 1920 7152 1760
WIRE 7152 1920 7104 1920
WIRE 7232 1920 7152 1920
WIRE 4560 1936 4560 1888
WIRE 4800 1936 4800 1904
WIRE 4800 1936 4560 1936
WIRE 4912 1936 4800 1936
WIRE 5008 1936 5008 1856
WIRE 5008 1936 4912 1936
WIRE 5088 1936 5088 1824
WIRE 5088 1936 5008 1936
WIRE 5136 1936 5136 1904
WIRE 5168 1936 5168 1776
WIRE 5168 1936 5136 1936
WIRE 5232 1936 5232 1824
WIRE 5232 1936 5168 1936
WIRE 5280 1936 5280 1904
WIRE 5312 1936 5280 1936
WIRE 5360 1936 5360 1776
WIRE 5360 1936 5312 1936
WIRE 5440 1936 5360 1936
WIRE 6928 1936 6928 1920
WIRE 7072 1936 7072 1920
WIRE 5136 1952 5136 1936
WIRE 5280 1952 5280 1936
WIRE 6704 1952 6704 1920
WIRE 7152 1952 7152 1920
WIRE 7280 1952 7280 1936
WIRE 7328 1952 7280 1952
WIRE 7392 1952 7328 1952
WIRE 4912 1968 4912 1936
WIRE 5360 1968 5360 1936
WIRE 5488 1968 5488 1952
WIRE 5536 1968 5488 1968
WIRE 5600 1968 5536 1968
WIRE 7280 1968 7280 1952
WIRE 7328 1968 7328 1952
WIRE 5488 1984 5488 1968
WIRE 5536 1984 5536 1968
WIRE 6592 1984 6592 1920
WIRE 4800 2000 4800 1936
WIRE 6800 2000 6800 1920
WIRE 9232 2000 9232 1904
WIRE 9232 2000 9184 2000
WIRE 5008 2016 5008 1936
WIRE 6880 2016 6880 1920
WIRE 7024 2016 7024 1920
WIRE 5088 2032 5088 1936
WIRE 5232 2032 5232 1936
WIRE 7232 2032 7216 2032
WIRE 5440 2048 5424 2048
WIRE 7104 2048 7104 1920
WIRE 7104 2048 6848 2048
WIRE 5312 2064 5312 1936
WIRE 5312 2064 5056 2064
WIRE 6544 2064 6496 2064
WIRE 7072 2064 7072 2032
WIRE 7216 2064 7216 2032
WIRE 4752 2080 4704 2080
WIRE 5280 2080 5280 2048
WIRE 5424 2080 5424 2048
WIRE 6848 2080 6848 2048
WIRE 5056 2096 5056 2064
WIRE 9232 2096 9232 2000
WIRE 9232 2096 9184 2096
WIRE 9376 2128 9312 2128
WIRE 9520 2128 9456 2128
WIRE 9680 2160 9648 2160
WIRE 9808 2160 9760 2160
WIRE 6592 2176 6592 2080
WIRE 6704 2176 6704 2016
WIRE 6800 2176 6800 2096
WIRE 6928 2176 6928 2032
WIRE 7072 2176 7072 2160
WIRE 7152 2176 7152 2016
WIRE 7280 2176 7280 2048
WIRE 7328 2176 7328 2032
WIRE 4800 2192 4800 2096
WIRE 4912 2192 4912 2032
WIRE 5008 2192 5008 2112
WIRE 5136 2192 5136 2048
WIRE 5280 2192 5280 2176
WIRE 5360 2192 5360 2032
WIRE 5488 2192 5488 2064
WIRE 5536 2192 5536 2048
WIRE 9232 2192 9232 2096
WIRE 9232 2192 9184 2192
WIRE 12160 2192 10064 2192
WIRE 9408 2240 9408 2224
WIRE 9232 2256 9232 2192
WIRE 9312 2256 9312 2128
WIRE 9312 2256 9232 2256
WIRE 9376 2256 9312 2256
WIRE 9520 2272 9520 2128
WIRE 9520 2272 9440 2272
WIRE 9552 2272 9520 2272
WIRE 9648 2272 9648 2160
WIRE 9648 2272 9632 2272
WIRE 9696 2272 9648 2272
WIRE 9936 2272 9936 2256
WIRE 9376 2288 9344 2288
WIRE 9808 2288 9808 2160
WIRE 9808 2288 9760 2288
WIRE 9904 2288 9808 2288
WIRE 9696 2304 9648 2304
WIRE 10000 2304 9968 2304
WIRE 10064 2304 10064 2192
WIRE 10064 2304 10000 2304
WIRE 10128 2304 10064 2304
WIRE 10240 2304 10208 2304
WIRE 10256 2304 10240 2304
WIRE 10368 2304 10320 2304
WIRE 9344 2320 9344 2288
WIRE 9408 2320 9408 2304
WIRE 9648 2320 9648 2304
WIRE 9904 2320 9872 2320
WIRE 9872 2352 9872 2320
WIRE 10000 2352 10000 2304
WIRE 10000 2352 9872 2352
WIRE 9936 2368 9936 2336
WIRE 10336 2432 10336 2416
WIRE 10240 2448 10240 2304
WIRE 10304 2448 10240 2448
WIRE 10400 2464 10368 2464
WIRE 10496 2464 10400 2464
WIRE 10880 2464 10576 2464
WIRE 10976 2464 10880 2464
WIRE 11088 2464 11056 2464
WIRE 10304 2480 10272 2480
WIRE 10272 2512 10272 2480
WIRE 10400 2512 10400 2464
WIRE 10400 2512 10272 2512
WIRE 10336 2528 10336 2496
WIRE 10944 2576 10944 2560
WIRE 10880 2592 10880 2464
WIRE 10912 2592 10880 2592
WIRE 11280 2592 11280 2576
WIRE 11088 2608 11088 2464
WIRE 11088 2608 10976 2608
WIRE 11248 2608 11088 2608
WIRE 10624 2624 10544 2624
WIRE 10784 2624 10704 2624
WIRE 10912 2624 10784 2624
WIRE 11344 2624 11312 2624
WIRE 11440 2624 11344 2624
WIRE 11248 2640 11216 2640
WIRE 10944 2656 10944 2640
WIRE 11216 2672 11216 2640
WIRE 11344 2672 11344 2624
WIRE 11344 2672 11216 2672
WIRE 11280 2688 11280 2656
WIRE 10784 2736 10784 2624
WIRE 11440 2736 11440 2704
WIRE 11584 2736 11440 2736
WIRE 11440 2768 11440 2736
WIRE 10784 2848 10784 2816
WIRE 1488 4192 272 4192
WIRE 960 4304 960 4288
WIRE 960 4304 736 4304
WIRE 1200 4304 960 4304
WIRE 4816 4336 3600 4336
WIRE 736 4352 736 4304
WIRE 1200 4352 1200 4304
WIRE 9312 4368 8096 4368
WIRE 4288 4432 4288 4416
WIRE 4288 4432 4064 4432
WIRE 4528 4432 4288 4432
WIRE 4064 4464 4064 4432
WIRE 4528 4464 4528 4432
WIRE -352 4480 -352 4464
WIRE 8784 4480 8784 4464
WIRE 8784 4480 8560 4480
WIRE 9024 4480 8784 4480
WIRE -384 4496 -496 4496
WIRE 1200 4496 1200 4432
WIRE 1616 4496 1200 4496
WIRE 1728 4496 1696 4496
WIRE 5424 4496 5376 4496
WIRE -288 4512 -320 4512
WIRE -160 4512 -288 4512
WIRE 432 4512 400 4512
WIRE 560 4512 512 4512
WIRE 5424 4512 5424 4496
WIRE 12640 4512 11424 4512
WIRE -384 4528 -416 4528
WIRE 5376 4528 5376 4496
WIRE 8560 4528 8560 4480
WIRE 9024 4528 9024 4480
WIRE -416 4560 -416 4528
WIRE -288 4560 -288 4512
WIRE -288 4560 -416 4560
WIRE 736 4560 736 4432
WIRE 1520 4560 736 4560
WIRE 1632 4560 1600 4560
WIRE -352 4576 -352 4544
WIRE 2160 4592 2128 4592
WIRE 2288 4592 2240 4592
WIRE -160 4608 -160 4512
WIRE -160 4608 -240 4608
WIRE 736 4608 736 4560
WIRE 736 4608 624 4608
WIRE 848 4608 736 4608
WIRE 1200 4608 1200 4496
WIRE 1200 4608 1088 4608
WIRE 1312 4608 1200 4608
WIRE 1856 4608 1824 4608
WIRE 1984 4608 1936 4608
WIRE 3760 4608 3728 4608
WIRE 3888 4608 3840 4608
WIRE 4528 4608 4528 4544
WIRE 4944 4608 4528 4608
WIRE 5056 4608 5024 4608
WIRE 12112 4608 12112 4592
WIRE 12112 4608 11888 4608
WIRE 12352 4608 12112 4608
WIRE -160 4640 -160 4608
WIRE 624 4640 624 4608
WIRE 848 4640 848 4608
WIRE 1088 4640 1088 4608
WIRE 1312 4640 1312 4608
WIRE 11888 4640 11888 4608
WIRE 12352 4640 12352 4608
WIRE 7472 4656 7472 4640
WIRE 17744 4656 16528 4656
WIRE 4064 4672 4064 4544
WIRE 4848 4672 4064 4672
WIRE 4960 4672 4928 4672
WIRE 7440 4672 7328 4672
WIRE 9024 4672 9024 4608
WIRE 9440 4672 9024 4672
WIRE 9552 4672 9520 4672
WIRE 13248 4672 13200 4672
WIRE 5184 4688 5152 4688
WIRE 5312 4688 5264 4688
WIRE 5424 4688 5424 4592
WIRE 5456 4688 5424 4688
WIRE 5584 4688 5536 4688
WIRE 7536 4688 7504 4688
WIRE 7664 4688 7536 4688
WIRE 8256 4688 8224 4688
WIRE 8384 4688 8336 4688
WIRE 13248 4688 13248 4672
WIRE 7440 4704 7408 4704
WIRE 13200 4704 13200 4672
WIRE 1200 4720 1200 4608
WIRE 4064 4720 4064 4672
WIRE 4064 4720 3952 4720
WIRE 4176 4720 4064 4720
WIRE 4528 4720 4528 4608
WIRE 4528 4720 4416 4720
WIRE 4640 4720 4528 4720
WIRE 80 4736 80 4720
WIRE 736 4736 736 4608
WIRE 7408 4736 7408 4704
WIRE 7536 4736 7536 4688
WIRE 7536 4736 7408 4736
WIRE 8560 4736 8560 4608
WIRE 9344 4736 8560 4736
WIRE 9456 4736 9424 4736
WIRE -160 4752 -160 4720
WIRE 48 4752 -160 4752
WIRE 560 4752 560 4512
WIRE 624 4752 624 4704
WIRE 624 4752 560 4752
WIRE 848 4752 848 4704
WIRE 976 4752 848 4752
WIRE 1088 4752 1088 4704
WIRE 1088 4752 976 4752
WIRE 1312 4752 1312 4704
WIRE 1488 4752 1488 4192
WIRE 1488 4752 1312 4752
WIRE 3952 4752 3952 4720
WIRE 4176 4752 4176 4720
WIRE 4416 4752 4416 4720
WIRE 4640 4752 4640 4720
WIRE 7472 4752 7472 4720
WIRE -160 4768 -160 4752
WIRE 144 4768 112 4768
WIRE 272 4768 272 4192
WIRE 272 4768 144 4768
WIRE 304 4768 272 4768
WIRE 400 4768 400 4512
WIRE 400 4768 384 4768
WIRE 448 4768 400 4768
WIRE 2976 4768 2944 4768
WIRE 3104 4768 3056 4768
WIRE 9984 4768 9952 4768
WIRE 10112 4768 10064 4768
WIRE 17216 4768 17216 4752
WIRE 17216 4768 16992 4768
WIRE 17456 4768 17216 4768
WIRE 48 4784 16 4784
WIRE 560 4784 560 4752
WIRE 560 4784 512 4784
WIRE 2128 4784 2128 4592
WIRE 2176 4784 2128 4784
WIRE 7664 4784 7664 4688
WIRE 7664 4784 7584 4784
WIRE 8560 4784 8560 4736
WIRE 8560 4784 8448 4784
WIRE 8672 4784 8560 4784
WIRE 9024 4784 9024 4672
WIRE 9024 4784 8912 4784
WIRE 9136 4784 9024 4784
WIRE 9680 4784 9648 4784
WIRE 9808 4784 9760 4784
WIRE 11584 4784 11552 4784
WIRE 11712 4784 11664 4784
WIRE 12352 4784 12352 4720
WIRE 12768 4784 12352 4784
WIRE 12880 4784 12848 4784
WIRE 448 4800 400 4800
WIRE 624 4800 624 4752
WIRE 848 4800 848 4752
WIRE 1088 4800 1088 4752
WIRE 1312 4800 1312 4752
WIRE 1632 4800 1632 4560
WIRE 1824 4800 1824 4608
WIRE 1824 4800 1632 4800
WIRE 1872 4800 1824 4800
WIRE 2288 4800 2288 4592
WIRE 2288 4800 2240 4800
WIRE 2416 4800 2288 4800
WIRE 2528 4800 2496 4800
WIRE 2656 4800 2528 4800
WIRE 2768 4800 2736 4800
WIRE 21072 4800 19856 4800
WIRE 16 4816 16 4784
WIRE 144 4816 144 4768
WIRE 144 4816 16 4816
WIRE 400 4816 400 4800
WIRE 1984 4816 1984 4608
WIRE 1984 4816 1936 4816
WIRE 2048 4816 1984 4816
WIRE 2176 4816 2128 4816
WIRE 7664 4816 7664 4784
WIRE 8448 4816 8448 4784
WIRE 8672 4816 8672 4784
WIRE 8912 4816 8912 4784
WIRE 9136 4816 9136 4784
WIRE 16992 4816 16992 4768
WIRE 17456 4816 17456 4768
WIRE 80 4832 80 4800
WIRE 1728 4832 1728 4496
WIRE 1824 4832 1728 4832
WIRE 1872 4832 1824 4832
WIRE 4528 4832 4528 4720
WIRE 25568 4832 24352 4832
WIRE 1824 4848 1824 4832
WIRE 4064 4848 4064 4720
WIRE 11888 4848 11888 4720
WIRE 12672 4848 11888 4848
WIRE 12784 4848 12752 4848
WIRE 3888 4864 3888 4608
WIRE 3952 4864 3952 4816
WIRE 3952 4864 3888 4864
WIRE 4176 4864 4176 4816
WIRE 4304 4864 4176 4864
WIRE 4416 4864 4416 4816
WIRE 4416 4864 4304 4864
WIRE 4640 4864 4640 4816
WIRE 4816 4864 4816 4336
WIRE 4816 4864 4640 4864
WIRE 13008 4864 12976 4864
WIRE 13136 4864 13088 4864
WIRE 13248 4864 13248 4768
WIRE 13280 4864 13248 4864
WIRE 13408 4864 13360 4864
WIRE 3600 4880 3600 4336
WIRE 3632 4880 3600 4880
WIRE 3728 4880 3728 4608
WIRE 3728 4880 3712 4880
WIRE 3776 4880 3728 4880
WIRE -160 4896 -160 4848
WIRE 3888 4896 3888 4864
WIRE 3888 4896 3840 4896
WIRE 5424 4896 5424 4688
WIRE 5472 4896 5424 4896
WIRE 5776 4896 5776 4880
WIRE 9024 4896 9024 4784
WIRE 11888 4896 11888 4848
WIRE 11888 4896 11776 4896
WIRE 12000 4896 11888 4896
WIRE 12352 4896 12352 4784
WIRE 12352 4896 12240 4896
WIRE 12464 4896 12352 4896
WIRE 20544 4896 20544 4880
WIRE 20544 4896 20320 4896
WIRE 20784 4896 20544 4896
WIRE 624 4912 624 4864
WIRE 736 4912 736 4816
WIRE 736 4912 624 4912
WIRE 848 4912 848 4864
WIRE 848 4912 736 4912
WIRE 1088 4912 1088 4864
WIRE 1200 4912 1200 4800
WIRE 1200 4912 1088 4912
WIRE 1312 4912 1312 4864
WIRE 1312 4912 1200 4912
WIRE 2416 4912 2384 4912
WIRE 2528 4912 2528 4800
WIRE 2528 4912 2496 4912
WIRE 3776 4912 3728 4912
WIRE 3952 4912 3952 4864
WIRE 4176 4912 4176 4864
WIRE 4416 4912 4416 4864
WIRE 4640 4912 4640 4864
WIRE 4960 4912 4960 4672
WIRE 5152 4912 5152 4688
WIRE 5152 4912 4960 4912
WIRE 5200 4912 5152 4912
WIRE 5584 4912 5584 4688
WIRE 5584 4912 5536 4912
WIRE 5632 4912 5584 4912
WIRE 5744 4912 5712 4912
WIRE 7904 4912 7904 4896
WIRE 8560 4912 8560 4784
WIRE 2688 4928 2688 4912
WIRE 3232 4928 3232 4352
WIRE 3728 4928 3728 4912
WIRE 5312 4928 5312 4688
WIRE 5312 4928 5264 4928
WIRE 5344 4928 5312 4928
WIRE 5472 4928 5424 4928
WIRE 5840 4928 5808 4928
WIRE 5936 4928 5840 4928
WIRE 7664 4928 7664 4896
WIRE 7872 4928 7664 4928
WIRE 8384 4928 8384 4688
WIRE 8448 4928 8448 4880
WIRE 8448 4928 8384 4928
WIRE 8672 4928 8672 4880
WIRE 8800 4928 8672 4928
WIRE 8912 4928 8912 4880
WIRE 8912 4928 8800 4928
WIRE 9136 4928 9136 4880
WIRE 9312 4928 9312 4368
WIRE 9312 4928 9136 4928
WIRE 11776 4928 11776 4896
WIRE 12000 4928 12000 4896
WIRE 12240 4928 12240 4896
WIRE 12464 4928 12464 4896
WIRE 20320 4928 20320 4896
WIRE 20784 4928 20784 4896
WIRE 2528 4944 2528 4912
WIRE 2656 4944 2528 4944
WIRE 5056 4944 5056 4608
WIRE 5152 4944 5056 4944
WIRE 5200 4944 5152 4944
WIRE 5744 4944 5712 4944
WIRE 7664 4944 7664 4928
WIRE 7968 4944 7936 4944
WIRE 8096 4944 8096 4368
WIRE 8096 4944 7968 4944
WIRE 8128 4944 8096 4944
WIRE 8224 4944 8224 4688
WIRE 8224 4944 8208 4944
WIRE 8272 4944 8224 4944
WIRE 10800 4944 10768 4944
WIRE 10928 4944 10880 4944
WIRE 15904 4944 15904 4928
WIRE 25040 4944 25040 4928
WIRE 25040 4944 24816 4944
WIRE 25280 4944 25040 4944
WIRE 1824 4960 1824 4928
WIRE 2768 4960 2768 4800
WIRE 2768 4960 2720 4960
WIRE 2848 4960 2768 4960
WIRE 2944 4960 2944 4768
WIRE 2944 4960 2928 4960
WIRE 2992 4960 2944 4960
WIRE 3504 4960 3504 4944
WIRE 5152 4960 5152 4944
WIRE 7872 4960 7840 4960
WIRE 8384 4960 8384 4928
WIRE 8384 4960 8336 4960
WIRE 9952 4960 9952 4768
WIRE 10000 4960 9952 4960
WIRE 15872 4960 15760 4960
WIRE 17456 4960 17456 4896
WIRE 17872 4960 17456 4960
WIRE 17984 4960 17952 4960
WIRE 21680 4960 21632 4960
WIRE 2656 4976 2624 4976
WIRE 3104 4976 3104 4768
WIRE 3104 4976 3056 4976
WIRE 3216 4976 3104 4976
WIRE 3328 4976 3312 4976
WIRE 3360 4976 3360 4336
WIRE 3360 4976 3328 4976
WIRE 3440 4976 3360 4976
WIRE 3472 4976 3440 4976
WIRE 5712 4976 5712 4944
WIRE 5840 4976 5840 4928
WIRE 5840 4976 5712 4976
WIRE 8272 4976 8224 4976
WIRE 8448 4976 8448 4928
WIRE 8672 4976 8672 4928
WIRE 8912 4976 8912 4928
WIRE 9136 4976 9136 4928
WIRE 9456 4976 9456 4736
WIRE 9648 4976 9648 4784
WIRE 9648 4976 9456 4976
WIRE 9696 4976 9648 4976
WIRE 10112 4976 10112 4768
WIRE 10112 4976 10064 4976
WIRE 10240 4976 10112 4976
WIRE 10352 4976 10320 4976