Version 4
SHEET 1 16040 10544
WIRE 5616 -832 5616 -848
WIRE 5568 -816 5520 -816
WIRE 6880 -800 6880 -816
WIRE 6832 -784 6784 -784
WIRE 5824 -752 5824 -848
WIRE 5984 -736 5872 -736
WIRE 6416 -736 6176 -736
WIRE 7088 -720 7088 -816
WIRE 5616 -704 5616 -736
WIRE 5952 -704 5952 -848
WIRE 6096 -704 6096 -848
WIRE 7248 -704 7136 -704
WIRE 7680 -704 7440 -704
WIRE 5568 -688 5520 -688
WIRE 6880 -672 6880 -704
WIRE 7216 -672 7216 -816
WIRE 7360 -672 7360 -816
WIRE 6304 -656 6304 -848
WIRE 6832 -656 6784 -656
WIRE 7568 -624 7568 -816
WIRE 5616 -576 5616 -608
WIRE 5728 -576 5616 -576
WIRE 5824 -576 5824 -656
WIRE 5824 -576 5728 -576
WIRE 5904 -576 5904 -688
WIRE 5904 -576 5824 -576
WIRE 5952 -576 5952 -608
WIRE 5984 -576 5984 -736
WIRE 5984 -576 5952 -576
WIRE 6048 -576 6048 -688
WIRE 6048 -576 5984 -576
WIRE 6096 -576 6096 -608
WIRE 6128 -576 6096 -576
WIRE 6176 -576 6176 -736
WIRE 6176 -576 6128 -576
WIRE 6256 -576 6176 -576
WIRE 5952 -560 5952 -576
WIRE 6096 -560 6096 -576
WIRE 5728 -544 5728 -576
WIRE 6176 -544 6176 -576
WIRE 6304 -544 6304 -560
WIRE 6352 -544 6304 -544
WIRE 6416 -544 6352 -544
WIRE 6880 -544 6880 -576
WIRE 6992 -544 6880 -544
WIRE 7088 -544 7088 -624
WIRE 7088 -544 6992 -544
WIRE 7168 -544 7168 -656
WIRE 7168 -544 7088 -544
WIRE 7216 -544 7216 -576
WIRE 7248 -544 7248 -704
WIRE 7248 -544 7216 -544
WIRE 7312 -544 7312 -656
WIRE 7312 -544 7248 -544
WIRE 7360 -544 7360 -576
WIRE 7392 -544 7360 -544
WIRE 7440 -544 7440 -704
WIRE 7440 -544 7392 -544
WIRE 7520 -544 7440 -544
WIRE 6304 -528 6304 -544
WIRE 6352 -528 6352 -544
WIRE 7216 -528 7216 -544
WIRE 7360 -528 7360 -544
WIRE 5616 -512 5616 -576
WIRE 6992 -512 6992 -544
WIRE 7440 -512 7440 -544
WIRE 7568 -512 7568 -528
WIRE 7616 -512 7568 -512
WIRE 7680 -512 7616 -512
WIRE 5824 -496 5824 -576
WIRE 7568 -496 7568 -512
WIRE 7616 -496 7616 -512
WIRE 5904 -480 5904 -576
WIRE 6048 -480 6048 -576
WIRE 6880 -480 6880 -544
WIRE 6256 -464 6240 -464
WIRE 7088 -464 7088 -544
WIRE 6128 -448 6128 -576
WIRE 6128 -448 5872 -448
WIRE 7168 -448 7168 -544
WIRE 7312 -448 7312 -544
WIRE 5568 -432 5520 -432
WIRE 6096 -432 6096 -464
WIRE 6240 -432 6240 -464
WIRE 7520 -432 7504 -432
WIRE 5872 -416 5872 -448
WIRE 7392 -416 7392 -544
WIRE 7392 -416 7136 -416
WIRE 6832 -400 6784 -400
WIRE 7360 -400 7360 -432
WIRE 7504 -400 7504 -432
WIRE 7136 -384 7136 -416
WIRE 5616 -320 5616 -416
WIRE 5728 -320 5728 -480
WIRE 5824 -320 5824 -400
WIRE 5952 -320 5952 -464
WIRE 6096 -320 6096 -336
WIRE 6176 -320 6176 -480
WIRE 6304 -320 6304 -448
WIRE 6352 -320 6352 -464
WIRE 6880 -288 6880 -384
WIRE 6992 -288 6992 -448
WIRE 7088 -288 7088 -368
WIRE 7216 -288 7216 -432
WIRE 7360 -288 7360 -304
WIRE 7440 -288 7440 -448
WIRE 7568 -288 7568 -416
WIRE 7616 -288 7616 -432
WIRE 512 -256 480 -256
WIRE 624 -256 592 -256
WIRE 800 -240 784 -240
WIRE 896 -240 880 -240
WIRE 928 -240 912 -240
WIRE 1040 -240 1008 -240
WIRE 1296 -224 1264 -224
WIRE 1408 -224 1376 -224
WIRE 368 -144 304 -144
WIRE 480 -144 480 -256
WIRE 480 -144 448 -144
WIRE 528 -144 480 -144
WIRE 624 -128 624 -256
WIRE 624 -128 592 -128
WIRE 752 -128 624 -128
WIRE 896 -128 896 -240
WIRE 896 -128 832 -128
WIRE 912 -128 912 -240
WIRE 912 -128 896 -128
WIRE 944 -128 912 -128
WIRE 528 -112 496 -112
WIRE 1040 -112 1040 -240
WIRE 1040 -112 1008 -112
WIRE 1152 -112 1040 -112
WIRE 1264 -112 1264 -224
WIRE 1264 -112 1232 -112
WIRE 1312 -112 1264 -112
WIRE 1792 -112 1792 -128
WIRE 496 -96 496 -112
WIRE 944 -96 912 -96
WIRE 1408 -96 1408 -224
WIRE 1408 -96 1376 -96
WIRE 1760 -96 1408 -96
WIRE 912 -80 912 -96
WIRE 1312 -80 1280 -80
WIRE 1856 -80 1824 -80
WIRE 1952 -80 1856 -80
WIRE 1280 -64 1280 -80
WIRE 1760 -64 1728 -64
WIRE 1728 -32 1728 -64
WIRE 1856 -32 1856 -80
WIRE 1856 -32 1728 -32
WIRE 1792 -16 1792 -48
WIRE 9216 0 9168 0
WIRE 496 16 480 16
WIRE 608 16 576 16
WIRE 656 16 640 16
WIRE 768 16 736 16
WIRE 1072 32 1040 32
WIRE 1184 32 1152 32
WIRE 160 96 160 80
WIRE 9216 96 9216 0
WIRE 9216 96 9168 96
WIRE 128 112 0 112
WIRE 224 128 192 128
WIRE 304 128 304 -144
WIRE 304 128 224 128
WIRE 480 128 304 128
WIRE 608 128 608 16
WIRE 608 128 560 128
WIRE 640 128 640 16
WIRE 640 128 608 128
WIRE 672 128 640 128
WIRE 128 144 96 144
WIRE 768 144 768 16
WIRE 768 144 736 144
WIRE 928 144 768 144
WIRE 1040 144 1040 32
WIRE 1040 144 1008 144
WIRE 1088 144 1040 144
WIRE 1792 144 1792 128
WIRE 672 160 640 160
WIRE 1184 160 1184 32
WIRE 1184 160 1152 160
WIRE 1760 160 1184 160
WIRE 96 176 96 144
WIRE 224 176 224 128
WIRE 224 176 96 176
WIRE 640 176 640 160
WIRE 1088 176 1056 176
WIRE 1856 176 1824 176
WIRE 1952 176 1856 176
WIRE 160 192 160 160
WIRE 1056 192 1056 176
WIRE 1760 192 1728 192
WIRE 9216 192 9216 96
WIRE 9216 192 9168 192
WIRE 1728 224 1728 192
WIRE 1856 224 1856 176
WIRE 1856 224 1728 224
WIRE 1792 240 1792 208
WIRE 9216 288 9216 192
WIRE 9216 288 9168 288
WIRE 0 304 0 112
WIRE 9216 384 9216 288
WIRE 9216 384 9168 384
WIRE 0 416 0 384
WIRE 1920 448 1888 448
WIRE 2064 448 2000 448
WIRE 2176 448 2064 448
WIRE 9216 480 9216 384
WIRE 9216 480 9168 480
WIRE 2064 512 2064 448
WIRE 384 576 384 528
WIRE 480 576 480 528
WIRE 576 576 576 528
WIRE 672 576 672 528
WIRE 1040 576 1040 544
WIRE 1168 576 1168 544
WIRE 1312 576 1312 544
WIRE 9216 576 9216 480
WIRE 9216 576 9168 576
WIRE 784 592 784 528
WIRE 912 592 912 528
WIRE 2064 624 2064 592
WIRE 2176 624 2064 624
WIRE 2064 656 2064 624
WIRE 9216 672 9216 576
WIRE 9216 672 9168 672
WIRE 384 704 384 656
WIRE 480 704 480 656
WIRE 576 704 576 656
WIRE 672 704 672 656
WIRE 784 704 784 672
WIRE 912 704 912 672
WIRE 1040 704 1040 656
WIRE 1168 704 1168 656
WIRE 1312 704 1312 656
WIRE 2064 784 2064 736
WIRE 2160 784 2064 784
WIRE 2064 816 2064 784
WIRE 9360 864 9296 864
WIRE 9504 864 9440 864
WIRE 9664 896 9632 896
WIRE 9792 896 9744 896
WIRE 2064 928 2064 896
WIRE 2160 928 2064 928
WIRE 10128 928 10048 928
WIRE 9392 976 9392 960
WIRE 2064 992 2064 928
WIRE 9216 992 9216 672
WIRE 9296 992 9296 864
WIRE 9296 992 9216 992
WIRE 9360 992 9296 992
WIRE 9504 1008 9504 864
WIRE 9504 1008 9424 1008
WIRE 9536 1008 9504 1008
WIRE 9632 1008 9632 896
WIRE 9632 1008 9616 1008
WIRE 9680 1008 9632 1008
WIRE 9920 1008 9920 992
WIRE 9360 1024 9328 1024
WIRE 9792 1024 9792 896
WIRE 9792 1024 9744 1024
WIRE 9888 1024 9792 1024
WIRE 9680 1040 9632 1040
WIRE 9984 1040 9952 1040
WIRE 10048 1040 10048 928
WIRE 10048 1040 9984 1040
WIRE 10112 1040 10048 1040
WIRE 10224 1040 10192 1040
WIRE 10240 1040 10224 1040
WIRE 10352 1040 10304 1040
WIRE 9328 1056 9328 1024
WIRE 9392 1056 9392 1040
WIRE 9632 1056 9632 1040
WIRE 9888 1056 9856 1056
WIRE 9856 1088 9856 1056
WIRE 9984 1088 9984 1040
WIRE 9984 1088 9856 1088
WIRE 9920 1104 9920 1072
WIRE 2064 1120 2064 1072
WIRE 2160 1120 2064 1120
WIRE 2064 1152 2064 1120
WIRE 10960 1200 10864 1200
WIRE 11072 1200 11040 1200
WIRE 10320 1248 10320 1232
WIRE 2064 1264 2064 1232
WIRE 2160 1264 2064 1264
WIRE 10224 1264 10224 1040
WIRE 10288 1264 10224 1264
WIRE 10384 1280 10352 1280
WIRE 10480 1280 10384 1280
WIRE 10864 1280 10864 1200
WIRE 10864 1280 10560 1280
WIRE 2064 1296 2064 1264
WIRE 10288 1296 10256 1296
WIRE 10928 1312 10928 1296
WIRE 10256 1328 10256 1296
WIRE 10384 1328 10384 1280
WIRE 10384 1328 10256 1328
WIRE 10864 1328 10864 1280
WIRE 10896 1328 10864 1328
WIRE 11264 1328 11264 1312
WIRE 10320 1344 10320 1312
WIRE 11072 1344 11072 1200
WIRE 11072 1344 10960 1344
WIRE 11232 1344 11072 1344
WIRE 10608 1360 10416 1360
WIRE 10768 1360 10688 1360
WIRE 10896 1360 10768 1360
WIRE 11328 1360 11296 1360
WIRE 11424 1360 11328 1360
WIRE 11232 1376 11200 1376
WIRE 10928 1392 10928 1376
WIRE 11200 1408 11200 1376
WIRE 11328 1408 11328 1360
WIRE 11328 1408 11200 1408
WIRE 2064 1424 2064 1376
WIRE 2160 1424 2064 1424
WIRE 11264 1424 11264 1392
WIRE 2064 1456 2064 1424
WIRE 10768 1472 10768 1360
WIRE 11424 1472 11424 1440
WIRE 11568 1472 11424 1472
WIRE 11424 1504 11424 1472
WIRE 2064 1568 2064 1536
WIRE 2160 1568 2064 1568
WIRE 10768 1584 10768 1552
WIRE 2064 1632 2064 1568
WIRE 2064 1776 2064 1712
WIRE 2144 1776 2064 1776
WIRE 2160 1776 2144 1776
WIRE 10416 1776 10416 1360
WIRE 2064 1856 2064 1776
WIRE 10416 1872 10416 1856
WIRE 2064 1984 2064 1936
WIRE 1488 4192 272 4192
WIRE 960 4304 960 4288
WIRE 960 4304 736 4304
WIRE 1200 4304 960 4304
WIRE 4816 4336 3600 4336
WIRE 736 4352 736 4304
WIRE 1200 4352 1200 4304
WIRE 9312 4368 8096 4368
WIRE 4288 4432 4288 4416
WIRE 4288 4432 4064 4432
WIRE 4528 4432 4288 4432
WIRE 4064 4464 4064 4432
WIRE 4528 4464 4528 4432
WIRE -352 4480 -352 4464
WIRE 8784 4480 8784 4464
WIRE 8784 4480 8560 4480
WIRE 9024 4480 8784 4480
WIRE -384 4496 -496 4496
WIRE 1200 4496 1200 4432
WIRE 1616 4496 1200 4496
WIRE 1728 4496 1696 4496
WIRE 5424 4496 5376 4496
WIRE -288 4512 -320 4512
WIRE -160 4512 -288 4512
WIRE 432 4512 400 4512
WIRE 560 4512 512 4512
WIRE 5424 4512 5424 4496
WIRE 12640 4512 11424 4512
WIRE -384 4528 -416 4528
WIRE 5376 4528 5376 4496
WIRE 8560 4528 8560 4480
WIRE 9024 4528 9024 4480
WIRE -416 4560 -416 4528
WIRE -288 4560 -288 4512
WIRE -288 4560 -416 4560
WIRE 736 4560 736 4432
WIRE 1520 4560 736 4560
WIRE 1632 4560 1600 4560
WIRE -352 4576 -352 4544
WIRE 2160 4592 2128 4592
WIRE 2288 4592 2240 4592
WIRE -160 4608 -160 4512
WIRE -160 4608 -240 4608
WIRE 736 4608 736 4560
WIRE 736 4608 624 4608
WIRE 848 4608 736 4608
WIRE 1200 4608 1200 4496
WIRE 1200 4608 1088 4608
WIRE 1312 4608 1200 4608
WIRE 1856 4608 1824 4608
WIRE 1984 4608 1936 4608
WIRE 3760 4608 3728 4608
WIRE 3888 4608 3840 4608
WIRE 4528 4608 4528 4544
WIRE 4944 4608 4528 4608
WIRE 5056 4608 5024 4608
WIRE 12112 4608 12112 4592
WIRE 12112 4608 11888 4608
WIRE 12352 4608 12112 4608
WIRE -160 4640 -160 4608
WIRE 624 4640 624 4608
WIRE 848 4640 848 4608
WIRE 1088 4640 1088 4608
WIRE 1312 4640 1312 4608
WIRE 11888 4640 11888 4608
WIRE 12352 4640 12352 4608
WIRE 7472 4656 7472 4640
WIRE 4064 4672 4064 4544
WIRE 4848 4672 4064 4672
WIRE 4960 4672 4928 4672
WIRE 7440 4672 7328 4672
WIRE 9024 4672 9024 4608
WIRE 9440 4672 9024 4672
WIRE 9552 4672 9520 4672
WIRE 13248 4672 13200 4672
WIRE 5184 4688 5152 4688
WIRE 5312 4688 5264 4688
WIRE 5424 4688 5424 4592
WIRE 5456 4688 5424 4688
WIRE 5584 4688 5536 4688
WIRE 7536 4688 7504 4688
WIRE 7664 4688 7536 4688
WIRE 8256 4688 8224 4688
WIRE 8384 4688 8336 4688
WIRE 13248 4688 13248 4672
WIRE 7440 4704 7408 4704
WIRE 13200 4704 13200 4672
WIRE 1200 4720 1200 4608
WIRE 4064 4720 4064 4672
WIRE 4064 4720 3952 4720
WIRE 4176 4720 4064 4720
WIRE 4528 4720 4528 4608
WIRE 4528 4720 4416 4720
WIRE 4640 4720 4528 4720
WIRE 80 4736 80 4720
WIRE 736 4736 736 4608
WIRE 7408 4736 7408 4704
WIRE 7536 4736 7536 4688
WIRE 7536 4736 7408 4736
WIRE 8560 4736 8560 4608
WIRE 9344 4736 8560 4736
WIRE 9456 4736 9424 4736
WIRE -160 4752 -160 4720
WIRE 48 4752 -160 4752
WIRE 560 4752 560 4512
WIRE 624 4752 624 4704
WIRE 624 4752 560 4752
WIRE 848 4752 848 4704
WIRE 976 4752 848 4752
WIRE 1088 4752 1088 4704
WIRE 1088 4752 976 4752
WIRE 1312 4752 1312 4704
WIRE 1488 4752 1488 4192
WIRE 1488 4752 1312 4752
WIRE 3952 4752 3952 4720
WIRE 4176 4752 4176 4720
WIRE 4416 4752 4416 4720
WIRE 4640 4752 4640 4720
WIRE 7472 4752 7472 4720
WIRE -160 4768 -160 4752
WIRE 144 4768 112 4768
WIRE 272 4768 272 4192
WIRE 272 4768 144 4768
WIRE 304 4768 272 4768
WIRE 400 4768 400 4512
WIRE 400 4768 384 4768
WIRE 448 4768 400 4768
WIRE 2976 4768 2944 4768
WIRE 3104 4768 3056 4768
WIRE 9984 4768 9952 4768
WIRE 10112 4768 10064 4768
WIRE 48 4784 16 4784
WIRE 560 4784 560 4752
WIRE 560 4784 512 4784
WIRE 2128 4784 2128 4592
WIRE 2176 4784 2128 4784
WIRE 7664 4784 7664 4688
WIRE 7664 4784 7584 4784
WIRE 8560 4784 8560 4736
WIRE 8560 4784 8448 4784
WIRE 8672 4784 8560 4784
WIRE 9024 4784 9024 4672
WIRE 9024 4784 8912 4784
WIRE 9136 4784 9024 4784
WIRE 9680 4784 9648 4784
WIRE 9808 4784 9760 4784
WIRE 11584 4784 11552 4784
WIRE 11712 4784 11664 4784
WIRE 12352 4784 12352 4720
WIRE 12768 4784 12352 4784
WIRE 12880 4784 12848 4784
WIRE 448 4800 400 4800
WIRE 624 4800 624 4752
WIRE 848 4800 848 4752
WIRE 1088 4800 1088 4752
WIRE 1312 4800 1312 4752
WIRE 1632 4800 1632 4560
WIRE 1824 4800 1824 4608
WIRE 1824 4800 1632 4800
WIRE 1872 4800 1824 4800
WIRE 2288 4800 2288 4592
WIRE 2288 4800 2240 4800
WIRE 2416 4800 2288 4800
WIRE 2528 4800 2496 4800
WIRE 2656 4800 2528 4800
WIRE 2768 4800 2736 4800
WIRE 16 4816 16 4784
WIRE 144 4816 144 4768
WIRE 144 4816 16 4816
WIRE 400 4816 400 4800
WIRE 1984 4816 1984 4608
WIRE 1984 4816 1936 4816
WIRE 2048 4816 1984 4816
WIRE 2176 4816 2128 4816
WIRE 7664 4816 7664 4784
WIRE 8448 4816 8448 4784
WIRE 8672 4816 8672 4784
WIRE 8912 4816 8912 4784
WIRE 9136 4816 9136 4784
WIRE 80 4832 80 4800
WIRE 1728 4832 1728 4496
WIRE 1824 4832 1728 4832
WIRE 1872 4832 1824 4832
WIRE 4528 4832 4528 4720
WIRE 1824 4848 1824 4832
WIRE 4064 4848 4064 4720
WIRE 11888 4848 11888 4720
WIRE 12672 4848 11888 4848
WIRE 12784 4848 12752 4848
WIRE 3888 4864 3888 4608
WIRE 3952 4864 3952 4816
WIRE 3952 4864 3888 4864
WIRE 4176 4864 4176 4816
WIRE 4304 4864 4176 4864
WIRE 4416 4864 4416 4816
WIRE 4416 4864 4304 4864
WIRE 4640 4864 4640 4816
WIRE 4816 4864 4816 4336
WIRE 4816 4864 4640 4864
WIRE 13008 4864 12976 4864
WIRE 13136 4864 13088 4864
WIRE 13248 4864 13248 4768
WIRE 13280 4864 13248 4864
WIRE 13408 4864 13360 4864
WIRE 3600 4880 3600 4336
WIRE 3632 4880 3600 4880
WIRE 3728 4880 3728 4608
WIRE 3728 4880 3712 4880
WIRE 3776 4880 3728 4880
WIRE -160 4896 -160 4848
WIRE 3888 4896 3888 4864
WIRE 3888 4896 3840 4896
WIRE 5424 4896 5424 4688
WIRE 5472 4896 5424 4896
WIRE 5776 4896 5776 4880
WIRE 9024 4896 9024 4784
WIRE 11888 4896 11888 4848
WIRE 11888 4896 11776 4896
WIRE 12000 4896 11888 4896
WIRE 12352 4896 12352 4784
WIRE 12352 4896 12240 4896
WIRE 12464 4896 12352 4896
WIRE 624 4912 624 4864
WIRE 736 4912 736 4816
WIRE 736 4912 624 4912
WIRE 848 4912 848 4864
WIRE 848 4912 736 4912
WIRE 1088 4912 1088 4864
WIRE 1200 4912 1200 4800
WIRE 1200 4912 1088 4912
WIRE 1312 4912 1312 4864
WIRE 1312 4912 1200 4912
WIRE 2416 4912 2384 4912
WIRE 2528 4912 2528 4800
WIRE 2528 4912 2496 4912
WIRE 3776 4912 3728 4912
WIRE 3952 4912 3952 4864
WIRE 4176 4912 4176 4864
WIRE 4416 4912 4416 4864
WIRE 4640 4912 4640 4864
WIRE 4960 4912 4960 4672
WIRE 5152 4912 5152 4688
WIRE 5152 4912 4960 4912
WIRE 5200 4912 5152 4912
WIRE 5584 4912 5584 4688
WIRE 5584 4912 5536 4912
WIRE 5632 4912 5584 4912
WIRE 5744 4912 5712 4912
WIRE 7904 4912 7904 4896
WIRE 8560 4912 8560 4784
WIRE 2688 4928 2688 4912
WIRE 3232 4928 3232 4352
WIRE 3728 4928 3728 4912
WIRE 5312 4928 5312 4688
WIRE 5312 4928 5264 4928
WIRE 5344 4928 5312 4928
WIRE 5472 4928 5424 4928
WIRE 5840 4928 5808 4928
WIRE 5936 4928 5840 4928
WIRE 7664 4928 7664 4896
WIRE 7872 4928 7664 4928
WIRE 8384 4928 8384 4688
WIRE 8448 4928 8448 4880
WIRE 8448 4928 8384 4928
WIRE 8672 4928 8672 4880
WIRE 8800 4928 8672 4928
WIRE 8912 4928 8912 4880
WIRE 8912 4928 8800 4928
WIRE 9136 4928 9136 4880
WIRE 9312 4928 9312 4368
WIRE 9312 4928 9136 4928
WIRE 11776 4928 11776 4896
WIRE 12000 4928 12000 4896
WIRE 12240 4928 12240 4896
WIRE 12464 4928 12464 4896
WIRE 2528 4944 2528 4912
WIRE 2656 4944 2528 4944
WIRE 5056 4944 5056 4608
WIRE 5152 4944 5056 4944
WIRE 5200 4944 5152 4944
WIRE 5744 4944 5712 4944
WIRE 7664 4944 7664 4928
WIRE 7968 4944 7936 4944
WIRE 8096 4944 8096 4368
WIRE 8096 4944 7968 4944
WIRE 8128 4944 8096 4944
WIRE 8224 4944 8224 4688
WIRE 8224 4944 8208 4944
WIRE 8272 4944 8224 4944
WIRE 10800 4944 10768 4944
WIRE 10928 4944 10880 4944
WIRE 1824 4960 1824 4928
WIRE 2768 4960 2768 4800
WIRE 2768 4960 2720 4960
WIRE 2848 4960 2768 4960
WIRE 2944 4960 2944 4768
WIRE 2944 4960 2928 4960
WIRE 2992 4960 2944 4960
WIRE 3504 4960 3504 4944
WIRE 5152 4960 5152 4944
WIRE 7872 4960 7840 4960
WIRE 8384 4960 8384 4928
WIRE 8384 4960 8336 4960
WIRE 9952 4960 9952 4768
WIRE 10000 4960 9952 4960
WIRE 2656 4976 2624 4976
WIRE 3104 4976 3104 4768
WIRE 3104 4976 3056 4976
WIRE 3216 4976 3104 4976
WIRE 3328 4976 3312 4976
WIRE 3360 4976 3360 4336
WIRE 3360 4976 3328 4976
WIRE 3440 4976 3360 4976
WIRE 3472 4976 3440 4976
WIRE 5712 4976 5712 4944
WIRE 5840 4976 5840 4928
WIRE 5840 4976 5712 4976
WIRE 8272 4976 8224 4976
WIRE 8448 4976 8448 4928
WIRE 8672 4976 8672 4928
WIRE 8912 4976 8912 4928
WIRE 9136 4976 9136 4928
WIRE 9456 4976 9456 4736
WIRE 9648 4976 9648 4784
WIRE 9648 4976 9456 4976
WIRE 9696 4976 9648 4976
WIRE 10112 4976 10112 4768
WIRE 10112 4976 10064 4976
WIRE 10240 4976 10112 4976
WIRE 10352 4976 10320 4976
WIRE 10480 4976 10352 4976
WIRE 10592 4976 10560 4976
WIRE 2992 4992 2944 4992
WIRE 3360 4992 3360 4976
WIRE 3568 4992 3536 4992
WIRE 3600 4992 3600 4880
WIRE 3600 4992 3568 4992
WIRE 5776 4992 5776 4960
WIRE 7840 4992 7840 4960
WIRE 7968 4992 7968 4944
WIRE 7968 4992 7840 4992
WIRE 8224 4992 8224 4976
WIRE 9808 4992 9808 4784
WIRE 9808 4992 9760 4992
WIRE 9872 4992 9808 4992
WIRE 10000 4992 9952 4992
WIRE -432 5008 -432 4992
WIRE 1200 5008 1200 4912
WIRE 1536 5008 1200 5008
WIRE 1632 5008 1632 4800
WIRE 1632 5008 1616 5008
WIRE 2624 5008 2624 4976
WIRE 2688 5008 2688 4992
WIRE 2944 5008 2944 4992
WIRE 3472 5008 3456 5008
WIRE 7904 5008 7904 4976
WIRE 9552 5008 9552 4672
WIRE 9648 5008 9552 5008
WIRE 9696 5008 9648 5008
WIRE 12352 5008 12352 4896
WIRE -464 5024 -512 5024
WIRE 3264 5024 3264 4976
WIRE 3328 5024 3328 4976
WIRE 3328 5024 3264 5024
WIRE 3952 5024 3952 4976
WIRE 4064 5024 4064 4928
WIRE 4064 5024 3952 5024
WIRE 4176 5024 4176 4976
WIRE 4176 5024 4064 5024
WIRE 4416 5024 4416 4976
WIRE 4528 5024 4528 4912
WIRE 4528 5024 4416 5024
WIRE 4640 5024 4640 4976
WIRE 4640 5024 4528 5024
WIRE 9648 5024 9648 5008
WIRE 11888 5024 11888 4896
WIRE -368 5040 -400 5040
WIRE 976 5040 976 4752
WIRE 976 5040 -368 5040
WIRE 3456 5040 3456 5008
WIRE 3568 5040 3568 4992
WIRE 3568 5040 3456 5040
WIRE 11712 5040 11712 4784
WIRE 11776 5040 11776 4992
WIRE 11776 5040 11712 5040
WIRE 12000 5040 12000 4992
WIRE 12128 5040 12000 5040
WIRE 12240 5040 12240 4992
WIRE 12240 5040 12128 5040
WIRE 12464 5040 12464 4992
WIRE 12640 5040 12640 4512
WIRE 12640 5040 12464 5040
WIRE -464 5056 -496 5056
WIRE 3504 5056 3504 5024
WIRE 11424 5056 11424 4512
WIRE 11456 5056 11424 5056
WIRE 11552 5056 11552 4784
WIRE 11552 5056 11536 5056
WIRE 11600 5056 11552 5056
WIRE 736 5072 736 4912
WIRE 1632 5072 736 5072
WIRE 1728 5072 1728 4832
WIRE 1728 5072 1712 5072
WIRE 3360 5072 3360 5056
WIRE 5152 5072 5152 5040
WIRE 7664 5072 7664 5024
WIRE 11712 5072 11712 5040
WIRE 11712 5072 11664 5072
WIRE 13248 5072 13248 4864
WIRE 13296 5072 13248 5072
WIRE 13600 5072 13600 5056
WIRE -496 5088 -496 5056
WIRE -368 5088 -368 5040
WIRE -368 5088 -496 5088
WIRE 8448 5088 8448 5040
WIRE 8560 5088 8560 4992
WIRE 8560 5088 8448 5088
WIRE 8672 5088 8672 5040
WIRE 8672 5088 8560 5088
WIRE 8912 5088 8912 5040
WIRE 9024 5088 9024 4976
WIRE 9024 5088 8912 5088
WIRE 9136 5088 9136 5040
WIRE 9136 5088 9024 5088
WIRE 10240 5088 10208 5088
WIRE 10352 5088 10352 4976
WIRE 10352 5088 10320 5088
WIRE 11600 5088 11552 5088
WIRE 11776 5088 11776 5040
WIRE 12000 5088 12000 5040
WIRE 12240 5088 12240 5040
WIRE 12464 5088 12464 5040
WIRE 12784 5088 12784 4848
WIRE 12976 5088 12976 4864
WIRE 12976 5088 12784 5088
WIRE 13024 5088 12976 5088
WIRE 13408 5088 13408 4864
WIRE 13408 5088 13360 5088
WIRE 13456 5088 13408 5088
WIRE 13568 5088 13536 5088
WIRE -432 5104 -432 5072
WIRE 736 5104 736 5072
WIRE 1200 5104 1200 5008
WIRE 10512 5104 10512 5088
WIRE 11056 5104 11056 4528
WIRE 11552 5104 11552 5088
WIRE 13136 5104 13136 4864
WIRE 13136 5104 13088 5104
WIRE 13168 5104 13136 5104
WIRE 13296 5104 13248 5104
WIRE 13664 5104 13632 5104
WIRE 13760 5104 13664 5104
WIRE 4304 5120 4304 4864
WIRE 4304 5120 3712 5120
WIRE 4528 5120 4528 5024
WIRE 4864 5120 4528 5120
WIRE 4960 5120 4960 4912
WIRE 4960 5120 4944 5120
WIRE 10352 5120 10352 5088
WIRE 10480 5120 10352 5120
WIRE 12880 5120 12880 4784
WIRE 12976 5120 12880 5120
WIRE 13024 5120 12976 5120
WIRE 13568 5120 13536 5120
WIRE 9648 5136 9648 5104
WIRE 10592 5136 10592 4976
WIRE 10592 5136 10544 5136
WIRE 10672 5136 10592 5136
WIRE 10768 5136 10768 4944
WIRE 10768 5136 10752 5136
WIRE 10816 5136 10768 5136
WIRE 11328 5136 11328 5120
WIRE 12976 5136 12976 5120
WIRE 10480 5152 10448 5152
WIRE 10928 5152 10928 4944
WIRE 10928 5152 10880 5152
WIRE 11040 5152 10928 5152
WIRE 11152 5152 11136 5152
WIRE 11184 5152 11184 4512
WIRE 11184 5152 11152 5152
WIRE 11264 5152 11184 5152
WIRE 11296 5152 11264 5152
WIRE 13536 5152 13536 5120
WIRE 13664 5152 13664 5104
WIRE 13664 5152 13536 5152
WIRE 10816 5168 10768 5168
WIRE 11184 5168 11184 5152
WIRE 11392 5168 11360 5168
WIRE 11424 5168 11424 5056
WIRE 11424 5168 11392 5168
WIRE 13600 5168 13600 5136
WIRE 4064 5184 4064 5024
WIRE 4960 5184 4064 5184
WIRE 5056 5184 5056 4944
WIRE 5056 5184 5040 5184
WIRE 7392 5184 7392 5168
WIRE 9024 5184 9024 5088
WIRE 9360 5184 9024 5184
WIRE 9456 5184 9456 4976
WIRE 9456 5184 9440 5184
WIRE 10448 5184 10448 5152
WIRE 10512 5184 10512 5168
WIRE 10768 5184 10768 5168
WIRE 11296 5184 11280 5184
WIRE 7360 5200 7312 5200
WIRE 11088 5200 11088 5152
WIRE 11152 5200 11152 5152
WIRE 11152 5200 11088 5200
WIRE 11776 5200 11776 5152
WIRE 11888 5200 11888 5104
WIRE 11888 5200 11776 5200
WIRE 12000 5200 12000 5152
WIRE 12000 5200 11888 5200
WIRE 12240 5200 12240 5152
WIRE 12352 5200 12352 5088
WIRE 12352 5200 12240 5200
WIRE 12464 5200 12464 5152
WIRE 12464 5200 12352 5200
WIRE 4064 5216 4064 5184
WIRE 4528 5216 4528 5120
WIRE 7456 5216 7424 5216
WIRE 8800 5216 8800 4928
WIRE 8800 5216 7456 5216
WIRE 11280 5216 11280 5184
WIRE 11392 5216 11392 5168
WIRE 11392 5216 11280 5216
WIRE 736 5232 736 5184
WIRE 976 5232 736 5232
WIRE 1200 5232 1200 5184
WIRE 1200 5232 976 5232
WIRE 7360 5232 7328 5232
WIRE 11328 5232 11328 5200
WIRE 8560 5248 8560 5088
WIRE 9456 5248 8560 5248
WIRE 9552 5248 9552 5008
WIRE 9552 5248 9536 5248
WIRE 11184 5248 11184 5232
WIRE 12976 5248 12976 5216
WIRE 976 5264 976 5232
WIRE 7328 5264 7328 5232
WIRE 7456 5264 7456 5216
WIRE 7456 5264 7328 5264
WIRE 3440 5280 3440 4976
WIRE 3440 5280 3408 5280
WIRE 7392 5280 7392 5248
WIRE 8560 5280 8560 5248
WIRE 9024 5280 9024 5184
WIRE 2384 5296 2384 4912
WIRE 3328 5296 2384 5296
WIRE 3344 5296 3328 5296
WIRE 12128 5296 12128 5040
WIRE 12128 5296 11536 5296
WIRE 12352 5296 12352 5200
WIRE 12688 5296 12352 5296
WIRE 12784 5296 12784 5088
WIRE 12784 5296 12768 5296
WIRE 3440 5312 3408 5312
WIRE 3328 5344 3328 5296
WIRE 3440 5344 3440 5312
WIRE 3440 5344 3328 5344
WIRE 4064 5344 4064 5296
WIRE 4304 5344 4064 5344
WIRE 4528 5344 4528 5296
WIRE 4528 5344 4304 5344
WIRE 3376 5360 3376 5328
WIRE 11888 5360 11888 5200
WIRE 12784 5360 11888 5360
WIRE 12880 5360 12880 5120
WIRE 12880 5360 12864 5360
WIRE 4304 5376 4304 5344
WIRE 11888 5392 11888 5360
WIRE 12352 5392 12352 5296
WIRE 8560 5408 8560 5360
WIRE 8800 5408 8560 5408
WIRE 9024 5408 9024 5360
WIRE 9024 5408 8800 5408
WIRE 8800 5440 8800 5408
WIRE 11264 5456 11264 5152
WIRE 11264 5456 11232 5456
WIRE -240 5472 -240 4608
WIRE 3712 5472 3712 5120
WIRE 3712 5472 -240 5472
WIRE 10208 5472 10208 5088
WIRE 11152 5472 10208 5472
WIRE 11168 5472 11152 5472
WIRE 11264 5488 11232 5488
WIRE 11152 5520 11152 5472
WIRE 11264 5520 11264 5488
WIRE 11264 5520 11152 5520
WIRE 11888 5520 11888 5472
WIRE 12128 5520 11888 5520
WIRE 12352 5520 12352 5472
WIRE 12352 5520 12128 5520
WIRE 11200 5536 11200 5504
WIRE 12128 5552 12128 5520
WIRE 7584 5648 7584 4784
WIRE 11536 5648 11536 5296
WIRE 11536 5648 7584 5648
FLAG 672 704 0
FLAG 672 528 Vint
FLAG 1040 544 VDD
FLAG 1040 704 0
FLAG 912 704 0
FLAG 912 528 VSS-
FLAG 784 704 0
FLAG 784 528 VSS+
FLAG 576 704 0
FLAG 576 528 VOFFSET
FLAG 480 704 0
FLAG 480 528 VREF
FLAG 384 704 0
FLAG 384 528 vw
FLAG 1168 544 VGND
FLAG 1168 704 0
FLAG 0 416 0
FLAG 1952 -80 VPOS
IOPIN 1952 -80 Out
FLAG 1952 176 VNEG
IOPIN 1952 176 Out
FLAG 1056 192 VGND
IOPIN 1056 192 In
FLAG 640 176 VGND
IOPIN 640 176 In
FLAG 496 -96 VGND
IOPIN 496 -96 In
FLAG 912 -80 VGND
IOPIN 912 -80 In
FLAG 1280 -64 VGND
IOPIN 1280 -64 In
FLAG 1344 -128 VSS+
IOPIN 1344 -128 In
FLAG 976 -144 VSS+
IOPIN 976 -144 In
FLAG 560 -160 VSS+
IOPIN 560 -160 In
FLAG 704 112 VSS+
IOPIN 704 112 In
FLAG 1120 128 VSS+
IOPIN 1120 128 In
FLAG 1344 -64 VSS-
IOPIN 1344 -64 In
FLAG 976 -80 VSS-
IOPIN 976 -80 In
FLAG 560 -96 VSS-
IOPIN 560 -96 In
FLAG 704 176 VSS-
IOPIN 704 176 In
FLAG 1120 192 VSS-
IOPIN 1120 192 In
FLAG 784 -240 VOFFSET
IOPIN 784 -240 In
FLAG 480 16 VOFFSET
IOPIN 480 16 In
FLAG 160 192 vss+
IOPIN 160 192 In
FLAG 160 80 vss-
IOPIN 160 80 In
FLAG 1792 -16 vss+
IOPIN 1792 -16 In
FLAG 1792 -128 vss-
IOPIN 1792 -128 In
FLAG 1792 240 vss+
IOPIN 1792 240 In
FLAG 1792 128 vss-
IOPIN 1792 128 In
FLAG 5952 -848 VDD
IOPIN 5952 -848 In
FLAG 5520 -816 VPOS
IOPIN 5520 -816 In
FLAG 5520 -688 VW
IOPIN 5520 -688 In
FLAG 5520 -432 V0
IOPIN 5520 -432 In
FLAG 6048 -352 VREF
IOPIN 6048 -352 In
FLAG 6240 -432 Vint
IOPIN 6240 -432 In
FLAG 6416 -544 VOUT1
IOPIN 6416 -544 Out
FLAG 5616 -320 0
FLAG 5728 -320 0
FLAG 5824 -320 0
FLAG 5952 -320 0
FLAG 6096 -320 0
FLAG 6176 -320 0
FLAG 6304 -320 0
FLAG 6352 -320 0
FLAG 5824 -848 VDD
IOPIN 5824 -848 In
FLAG 5616 -848 VDD
IOPIN 5616 -848 In
FLAG 6304 -848 VDD
IOPIN 6304 -848 In
FLAG 6096 -848 VDD
IOPIN 6096 -848 In
FLAG 6416 -736 SPIKES1
IOPIN 6416 -736 Out
FLAG 7216 -816 VDD
IOPIN 7216 -816 In
FLAG 6784 -784 VNEG
IOPIN 6784 -784 In
FLAG 6784 -656 VW
IOPIN 6784 -656 In
FLAG 6784 -400 V0
IOPIN 6784 -400 In
FLAG 7312 -320 VREF
IOPIN 7312 -320 In
FLAG 7504 -400 Vint
IOPIN 7504 -400 In
FLAG 7680 -512 VOUT5
IOPIN 7680 -512 Out
FLAG 6880 -288 0
FLAG 6992 -288 0
FLAG 7088 -288 0
FLAG 7216 -288 0
FLAG 7360 -288 0
FLAG 7440 -288 0
FLAG 7568 -288 0
FLAG 7616 -288 0
FLAG 7088 -816 VDD
IOPIN 7088 -816 In
FLAG 6880 -816 VDD
IOPIN 6880 -816 In
FLAG 7568 -816 VDD
IOPIN 7568 -816 In
FLAG 7360 -816 VDD
IOPIN 7360 -816 In
FLAG 7680 -704 SPIKES5
IOPIN 7680 -704 Out
FLAG 9920 1104 vss+
IOPIN 9920 1104 In
FLAG 9920 992 vss-
IOPIN 9920 992 In
FLAG 9392 960 vss+
IOPIN 9392 960 In
FLAG 9392 1056 vss-
IOPIN 9392 1056 In
FLAG 9328 1056 VGND
IOPIN 9328 1056 In
FLAG 9712 992 vss+
IOPIN 9712 992 In
FLAG 9712 1056 vss-
IOPIN 9712 1056 In
FLAG 9632 1056 VGND
IOPIN 9632 1056 In
FLAG 9088 0 T1
IOPIN 9088 0 In
FLAG 9088 96 T5
IOPIN 9088 96 In
FLAG -496 4496 VOUT1
IOPIN -496 4496 In
FLAG 5936 4928 T1
IOPIN 5936 4928 Out
FLAG 400 4816 VGND
IOPIN 400 4816 In
FLAG 976 5264 VGND
IOPIN 976 5264 In
FLAG 1824 4960 VGND
IOPIN 1824 4960 In
FLAG 2624 5008 VGND
IOPIN 2624 5008 In
FLAG 2944 5008 VGND
IOPIN 2944 5008 In
FLAG 3360 5072 VGND
IOPIN 3360 5072 In
FLAG 3728 4928 VGND
IOPIN 3728 4928 In
FLAG 4304 5376 VGND
IOPIN 4304 5376 In
FLAG 5152 5072 VGND
IOPIN 5152 5072 In
FLAG 5376 4528 VGND
IOPIN 5376 4528 In
FLAG 2048 4592 VGND
IOPIN 2048 4592 In
FLAG 4288 4416 VDD
IOPIN 4288 4416 In
FLAG -160 4896 VGND
IOPIN -160 4896 In
FLAG -432 5104 VSS+
IOPIN -432 5104 In
FLAG 80 4832 VSS+
IOPIN 80 4832 In
FLAG 480 4752 VSS+
IOPIN 480 4752 In
FLAG 1904 4784 VSS+
IOPIN 1904 4784 In
FLAG 2208 4768 VSS+
IOPIN 2208 4768 In
FLAG 2688 4912 VSS+
IOPIN 2688 4912 In
FLAG 3024 4944 VSS+
IOPIN 3024 4944 In
FLAG 3808 4864 VSS+
IOPIN 3808 4864 In
FLAG 5232 4896 VSS+
IOPIN 5232 4896 In
FLAG 5504 4880 VSS+
IOPIN 5504 4880 In
FLAG 5776 4992 VSS+
IOPIN 5776 4992 In
FLAG 3376 5360 VSS+
IOPIN 3376 5360 In
FLAG 80 4720 VSS-
IOPIN 80 4720 In
FLAG -432 4992 VSS-
IOPIN -432 4992 In
FLAG 480 4816 VSS-
IOPIN 480 4816 In
FLAG 1904 4848 VSS-
IOPIN 1904 4848 In
FLAG 2688 5008 VSS-
IOPIN 2688 5008 In
FLAG 3024 5008 VSS-
IOPIN 3024 5008 In
FLAG 3504 4944 VSS-
IOPIN 3504 4944 In
FLAG 5232 4960 VSS-
IOPIN 5232 4960 In
FLAG 5504 4944 VSS-
IOPIN 5504 4944 In
FLAG 5776 4880 VSS-
IOPIN 5776 4880 In
FLAG 3504 5056 VSS+
IOPIN 3504 5056 In
FLAG 3376 5264 VSS-
IOPIN 3376 5264 In
FLAG 3808 4928 VSS-
IOPIN 3808 4928 In
FLAG 2208 4832 VSS-
IOPIN 2208 4832 In
FLAG 3232 4352 Wc
IOPIN 3232 4352 In
FLAG -512 5024 ERRORSIG
IOPIN -512 5024 In
FLAG 960 4288 VDD
IOPIN 960 4288 In
FLAG -352 4576 VSS+
IOPIN -352 4576 In
FLAG -352 4464 VSS-
IOPIN -352 4464 In
FLAG 7328 4672 VOUT5
IOPIN 7328 4672 In
FLAG 13760 5104 T5
IOPIN 13760 5104 Out
FLAG 8224 4992 VGND
IOPIN 8224 4992 In
FLAG 8800 5440 VGND
IOPIN 8800 5440 In
FLAG 9648 5136 VGND
IOPIN 9648 5136 In
FLAG 10448 5184 VGND
IOPIN 10448 5184 In
FLAG 10768 5184 VGND
IOPIN 10768 5184 In
FLAG 11184 5248 VGND
IOPIN 11184 5248 In
FLAG 11552 5104 VGND
IOPIN 11552 5104 In
FLAG 12128 5552 VGND
IOPIN 12128 5552 In
FLAG 12976 5248 VGND
IOPIN 12976 5248 In
FLAG 13200 4704 VGND
IOPIN 13200 4704 In
FLAG 9872 4768 VGND
IOPIN 9872 4768 In
FLAG 12112 4592 VDD
IOPIN 12112 4592 In
FLAG 7664 5072 VGND
IOPIN 7664 5072 In
FLAG 7392 5280 VSS+
IOPIN 7392 5280 In
FLAG 7904 5008 VSS+
IOPIN 7904 5008 In
FLAG 8304 4928 VSS+
IOPIN 8304 4928 In
FLAG 9728 4960 VSS+
IOPIN 9728 4960 In
FLAG 10032 4944 VSS+
IOPIN 10032 4944 In
FLAG 10512 5088 VSS+
IOPIN 10512 5088 In
FLAG 10848 5120 VSS+
IOPIN 10848 5120 In
FLAG 11632 5040 VSS+
IOPIN 11632 5040 In
FLAG 13056 5072 VSS+
IOPIN 13056 5072 In
FLAG 13328 5056 VSS+
IOPIN 13328 5056 In
FLAG 13600 5168 VSS+
IOPIN 13600 5168 In
FLAG 11200 5536 VSS+
IOPIN 11200 5536 In
FLAG 7904 4896 VSS-
IOPIN 7904 4896 In
FLAG 7392 5168 VSS-
IOPIN 7392 5168 In
FLAG 8304 4992 VSS-
IOPIN 8304 4992 In
FLAG 9728 5024 VSS-
IOPIN 9728 5024 In
FLAG 10512 5184 VSS-
IOPIN 10512 5184 In
FLAG 10848 5184 VSS-
IOPIN 10848 5184 In
FLAG 11328 5120 VSS-
IOPIN 11328 5120 In
FLAG 13056 5136 VSS-
IOPIN 13056 5136 In
FLAG 13328 5120 VSS-
IOPIN 13328 5120 In
FLAG 13600 5056 VSS-
IOPIN 13600 5056 In
FLAG 11328 5232 VSS+
IOPIN 11328 5232 In
FLAG 11200 5440 VSS-
IOPIN 11200 5440 In
FLAG 11632 5104 VSS-
IOPIN 11632 5104 In
FLAG 10032 5008 VSS-
IOPIN 10032 5008 In
FLAG 11056 4528 Wc
IOPIN 11056 4528 In
FLAG 7312 5200 ERRORSIG
IOPIN 7312 5200 In
FLAG 8784 4464 VDD
IOPIN 8784 4464 In
FLAG 7472 4752 VSS+
IOPIN 7472 4752 In
FLAG 7472 4640 VSS-
IOPIN 7472 4640 In
FLAG 10768 1584 VGND
IOPIN 10768 1584 In
FLAG 10928 1392 vss-
IOPIN 10928 1392 In
FLAG 10928 1296 vss+
IOPIN 10928 1296 In
FLAG 11264 1424 vss+
IOPIN 11264 1424 In
FLAG 11264 1312 vss-
IOPIN 11264 1312 In
FLAG 10352 1040 VGND
IOPIN 10352 1040 In
FLAG 10320 1344 vss+
IOPIN 10320 1344 In
FLAG 10320 1232 vss-